/*--------------------------------*- C++ -*----------------------------------*\
| =========                 |                                                 |
| \\      /  F ield         | foam-extend: Open Source CFD                    |
|  \\    /   O peration     | Version:     3.2                                |
|   \\  /    A nd           | Web:         http://www.foam-extend.org         |
|    \\/     M anipulation  |                                                 |
\*---------------------------------------------------------------------------*/
FoamFile
{
    version     2.0;
    format      ascii;
    class       dictionary;
    object      controlDict;
}
// * * * * * * * * * * * * * * * * * * * * * * * * * * * * * * * * * * * * * //


solvers
{

    p
    {
        solver           PCG;
        preconditioner   DIC;
        tolerance        1e-8;
        relTol 	         1.0e-3;
    }

    pFinal
    {
        $p;
        relTol          0;
    }

    pcorr
    {
        $p;
    }

    pcorrFinal
    {
        $pcorr;
        relTol          0;
    }

    Phi
    {
        $p;
    }

    "(U|cellDisplacement)"
    {
        solver          smoothSolver;
        smoother        symGaussSeidel;
        tolerance       1e-6;
        relTol          1e-4;
        minIter         2;
    }

    "(U|cellDisplacement)Final"
    {
        $U;
        relTol          0;
    }
}

PIMPLE
{
    nCorrectors 10;
    nNonOrthogonalCorrectors 2;
    nOuterCorrectors	1;
}


potentialFlow
{
    nNonOrthogonalCorrectors 10;
}

// ************************************************************************* //
